k23/sourcebus_11000.130_1438/Loads.dss
New Load.48489_dci48489 bus1=37724.3 kV=0.24999266655910796 Vminpu=0.7 Vmaxpu=1.3 model=1 kW=-2.8215 kvar=0.0 Phases=1
New Load.48497_dci48497 bus1=37716.3 kV=0.24999266655910796 Vminpu=0.7 Vmaxpu=1.3 model=1 kW=-2.052 kvar=0.0 Phases=1
New Load.48499_dci48499 bus1=37704.3 kV=0.24999266655910796 Vminpu=0.7 Vmaxpu=1.3 model=1 kW=-8.100000000000001 kvar=0.0 Phases=1
New Load.48506_dci48506 bus1=37706.3 kV=0.24999266655910796 Vminpu=0.7 Vmaxpu=1.3 model=1 kW=-2.7 kvar=0.0 Phases=1
New Load.48509_dci48509 bus1=37707.3 kV=0.24999266655910796 Vminpu=0.7 Vmaxpu=1.3 model=1 kW=-2.052 kvar=0.0 Phases=1
New Load.48511_dci48511 bus1=37707.2 kV=0.24999266655910796 Vminpu=0.7 Vmaxpu=1.3 model=1 kW=-13.5 kvar=0.0 Phases=1
New Load.48514_dci48514 bus1=37707.2 kV=0.24999266655910796 Vminpu=0.7 Vmaxpu=1.3 model=1 kW=-5.4 kvar=0.0 Phases=1
New Load.48520_dci48520 bus1=37718.1 kV=0.24999266655910796 Vminpu=0.7 Vmaxpu=1.3 model=1 kW=-2.7 kvar=0.0 Phases=1
New Load.48523_dci48523 bus1=37721.2 kV=0.24999266655910796 Vminpu=0.7 Vmaxpu=1.3 model=1 kW=-8.775 kvar=0.0 Phases=1
New Load.48530_dci48530 bus1=37716.3 kV=0.24999266655910796 Vminpu=0.7 Vmaxpu=1.3 model=1 kW=-8.91 kvar=0.0 Phases=1
New Load.48538_dci48538 bus1=37716.3 kV=0.24999266655910796 Vminpu=0.7 Vmaxpu=1.3 model=1 kW=-4.104 kvar=0.0 Phases=1
New Load.48547_dci48547 bus1=37717.1 kV=0.24999266655910796 Vminpu=0.7 Vmaxpu=1.3 model=1 kW=-2.0250000000000004 kvar=0.0 Phases=1
New Load.48555_dci48555 bus1=37724.3 kV=0.24999266655910796 Vminpu=0.7 Vmaxpu=1.3 model=1 kW=-4.050000000000001 kvar=0.0 Phases=1
New Load.48557_dci48557 bus1=37724.3 kV=0.24999266655910796 Vminpu=0.7 Vmaxpu=1.3 model=1 kW=-2.052 kvar=0.0 Phases=1
New Load.48559_dci48559 bus1=37724.1 kV=0.24999266655910796 Vminpu=0.7 Vmaxpu=1.3 model=1 kW=-2.7 kvar=0.0 Phases=1
New Load.48561_dci48561 bus1=37723.2 kV=0.24999266655910796 Vminpu=0.7 Vmaxpu=1.3 model=1 kW=-4.104 kvar=0.0 Phases=1
New Load.LO48490 bus1=37724.3 kV=0.24999266655910796 Vminpu=0.7 Vmaxpu=1.3 model=1 kW=1.6 kvar=0.0 Phases=1
New Load.LO48493 bus1=37718.2 kV=0.24999266655910796 Vminpu=0.7 Vmaxpu=1.3 model=1 kW=1.6 kvar=0.0 Phases=1
New Load.LO48494 bus1=37720.1 kV=0.24999266655910796 Vminpu=0.7 Vmaxpu=1.3 model=1 kW=1.6 kvar=0.0 Phases=1
New Load.LO48495 bus1=37716.2 kV=0.24999266655910796 Vminpu=0.7 Vmaxpu=1.3 model=1 kW=1.6 kvar=0.0 Phases=1
New Load.LO48498 bus1=37716.3 kV=0.24999266655910796 Vminpu=0.7 Vmaxpu=1.3 model=1 kW=1.6 kvar=0.0 Phases=1
New Load.LO48500 bus1=37704.3 kV=0.24999266655910796 Vminpu=0.7 Vmaxpu=1.3 model=1 kW=1.6 kvar=0.0 Phases=1
New Load.LO48501 bus1=37704.3 kV=0.24999266655910796 Vminpu=0.7 Vmaxpu=1.3 model=1 kW=1.6 kvar=0.0 Phases=1
New Load.LO48502 bus1=37705.3 kV=0.24999266655910796 Vminpu=0.7 Vmaxpu=1.3 model=1 kW=1.6 kvar=0.0 Phases=1
New Load.LO48503 bus1=37705.3 kV=0.24999266655910796 Vminpu=0.7 Vmaxpu=1.3 model=1 kW=1.6 kvar=0.0 Phases=1
New Load.LO48504 bus1=37706.1 kV=0.24999266655910796 Vminpu=0.7 Vmaxpu=1.3 model=1 kW=1.6 kvar=0.0 Phases=1
New Load.LO48505 bus1=37706.1 kV=0.24999266655910796 Vminpu=0.7 Vmaxpu=1.3 model=1 kW=1.6 kvar=0.0 Phases=1
New Load.LO48507 bus1=37706.1 kV=0.24999266655910796 Vminpu=0.7 Vmaxpu=1.3 model=1 kW=1.6 kvar=0.0 Phases=1
New Load.LO48508 bus1=37706.3 kV=0.24999266655910796 Vminpu=0.7 Vmaxpu=1.3 model=1 kW=1.6 kvar=0.0 Phases=1
New Load.LO48510 bus1=37707.3 kV=0.24999266655910796 Vminpu=0.7 Vmaxpu=1.3 model=1 kW=1.6 kvar=0.0 Phases=1
New Load.LO48512 bus1=37707.2 kV=0.24999266655910796 Vminpu=0.7 Vmaxpu=1.3 model=1 kW=1.6 kvar=0.0 Phases=1
New Load.LO48513 bus1=37707.1 kV=0.24999266655910796 Vminpu=0.7 Vmaxpu=1.3 model=1 kW=1.6 kvar=0.0 Phases=1
New Load.LO48515 bus1=37707.3 kV=0.24999266655910796 Vminpu=0.7 Vmaxpu=1.3 model=1 kW=1.6 kvar=0.0 Phases=1
New Load.LO48516 bus1=37721.2 kV=0.24999266655910796 Vminpu=0.7 Vmaxpu=1.3 model=1 kW=1.6 kvar=0.0 Phases=1
New Load.LO48517 bus1=37702.2 kV=0.24999266655910796 Vminpu=0.7 Vmaxpu=1.3 model=1 kW=1.6 kvar=0.0 Phases=1
New Load.LO48518 bus1=37703.1 kV=0.24999266655910796 Vminpu=0.7 Vmaxpu=1.3 model=1 kW=1.6 kvar=0.0 Phases=1
New Load.LO48519 bus1=37718.2 kV=0.24999266655910796 Vminpu=0.7 Vmaxpu=1.3 model=1 kW=1.6 kvar=0.0 Phases=1
New Load.LO48521 bus1=37718.1 kV=0.24999266655910796 Vminpu=0.7 Vmaxpu=1.3 model=1 kW=1.6 kvar=0.0 Phases=1
New Load.LO48522 bus1=37720.2 kV=0.24999266655910796 Vminpu=0.7 Vmaxpu=1.3 model=1 kW=1.6 kvar=0.0 Phases=1
New Load.LO48524 bus1=37721.2 kV=0.24999266655910796 Vminpu=0.7 Vmaxpu=1.3 model=1 kW=1.6 kvar=0.0 Phases=1
New Load.LO48525 bus1=37709.3 kV=0.24999266655910796 Vminpu=0.7 Vmaxpu=1.3 model=1 kW=1.6 kvar=0.0 Phases=1
New Load.LO48528 bus1=37716.3 kV=0.24999266655910796 Vminpu=0.7 Vmaxpu=1.3 model=1 kW=1.6 kvar=0.0 Phases=1
New Load.LO48529 bus1=37716.1 kV=0.24999266655910796 Vminpu=0.7 Vmaxpu=1.3 model=1 kW=1.6 kvar=0.0 Phases=1
New Load.LO48531 bus1=37716.3 kV=0.24999266655910796 Vminpu=0.7 Vmaxpu=1.3 model=1 kW=1.6 kvar=0.0 Phases=1
New Load.LO48532 bus1=37716.1 kV=0.24999266655910796 Vminpu=0.7 Vmaxpu=1.3 model=1 kW=1.6 kvar=0.0 Phases=1
New Load.LO48539 bus1=37716.3 kV=0.24999266655910796 Vminpu=0.7 Vmaxpu=1.3 model=1 kW=1.6 kvar=0.0 Phases=1
New Load.LO48545 bus1=37716.2 kV=0.24999266655910796 Vminpu=0.7 Vmaxpu=1.3 model=1 kW=1.6 kvar=0.0 Phases=1
New Load.LO48546 bus1=37717.1 kV=0.24999266655910796 Vminpu=0.7 Vmaxpu=1.3 model=1 kW=1.6 kvar=0.0 Phases=1
New Load.LO48548 bus1=37717.1 kV=0.24999266655910796 Vminpu=0.7 Vmaxpu=1.3 model=1 kW=1.6 kvar=0.0 Phases=1
New Load.LO48549 bus1=37719.1 kV=0.24999266655910796 Vminpu=0.7 Vmaxpu=1.3 model=1 kW=1.6 kvar=0.0 Phases=1
New Load.LO48550 bus1=37719.2 kV=0.24999266655910796 Vminpu=0.7 Vmaxpu=1.3 model=1 kW=1.6 kvar=0.0 Phases=1
New Load.LO48551 bus1=37720.3 kV=0.24999266655910796 Vminpu=0.7 Vmaxpu=1.3 model=1 kW=1.6 kvar=0.0 Phases=1
New Load.LO48552 bus1=37721.2 kV=0.24999266655910796 Vminpu=0.7 Vmaxpu=1.3 model=1 kW=1.6 kvar=0.0 Phases=1
New Load.LO48553 bus1=37709.1 kV=0.24999266655910796 Vminpu=0.7 Vmaxpu=1.3 model=1 kW=1.6 kvar=0.0 Phases=1
New Load.LO48554 bus1=37722.1 kV=0.24999266655910796 Vminpu=0.7 Vmaxpu=1.3 model=1 kW=1.6 kvar=0.0 Phases=1
New Load.LO48556 bus1=37724.3 kV=0.24999266655910796 Vminpu=0.7 Vmaxpu=1.3 model=1 kW=1.6 kvar=0.0 Phases=1
New Load.LO48558 bus1=37724.3 kV=0.24999266655910796 Vminpu=0.7 Vmaxpu=1.3 model=1 kW=1.6 kvar=0.0 Phases=1
New Load.LO48560 bus1=37724.1 kV=0.24999266655910796 Vminpu=0.7 Vmaxpu=1.3 model=1 kW=1.6 kvar=0.0 Phases=1
New Load.LO48562 bus1=37723.2 kV=0.24999266655910796 Vminpu=0.7 Vmaxpu=1.3 model=1 kW=1.6 kvar=0.0 Phases=1
